**********
*SRC=BC327;BC327;BJTs PNP;Amplifier;45V 500mA
.MODEL BC327 PNP (IS=5.224E-17 NF=1 BF=208 VAF=120 IKF=.48
+ ISE=989F NE=2 BR=4 NR=1 VAR=20 IKR=.72 RE=.214 RB=.857
+ RC=85.7M XTB=1.5 CJE=71.0P CJC=28.8P TF=794P TR=127N)
*   Siemens 45 Volt  .8 Amp  200 MHz  SiPNP  Transistor  04-12-1991
**********
*SRC=BC337;BC337;BJTs NPN;Gen. Purpose;45V 500mA
.MODEL BC337 NPN (IS=83.3F NF=1 BF=103 VAF=145 IKF=1
+ ISE=28.8P NE=2 BR=4 NR=1 VAR=28 IKR=1.5 RE=.763 RB=3.05
+ RC=.305 XTB=1.5 CJE=31.2P CJC=67.7P TF=1.13N TR=212N)
*   National 65 Volt  .5 Amp  140 MHz  SiNPN  Transistor  01-26-1991
*PINOUT TO-92 3 2 1
**********
.MODEL 1N4007 D
+ IS=7.02767e-09 
+ RS=0.0341512 
+ N=1.80803
+ EG=1.05743 
+ XTI=5 BV=1000 
+ IBV=5e-08 
+ CJO=1e-11 
+ VJ=0.7 
+ M=0.5
+ FC=0.5 
+ TT=1e-07 
+ KF=0 
+ AF=1
***********